# File generated by Flopy version 3.3.2 on 01/28/2021 at 17:01:07.
BEGIN options
  COMPLEXITY  simple
END options

