# File generated by Flopy version 3.3.2 on 01/28/2021 at 17:01:07.
BEGIN options
  TIME_UNITS  days
END options

BEGIN dimensions
  NPER  1
END dimensions

BEGIN perioddata
       1.00000000  1       1.00000000
END perioddata

